Version 4
SHEET 1 968 680
WIRE -16 240 -16 128
WIRE 544 240 544 128
WIRE 544 240 -16 240
SYMBOL 74HCT\\74hct04 144 64 R0
SYMATTR InstName U1
SYMBOL 74HCT\\74hct04 256 64 R0
SYMATTR InstName U2
SYMBOL 74HCT\\74hct04 368 64 R0
SYMATTR InstName U3
SYMBOL 74HCT\\74hct04 480 64 R0
SYMATTR InstName U4
SYMBOL 74HCT\\74hct04 32 64 R0
SYMATTR InstName U5
TEXT 408 256 Left 2 !.lib 74hct.lib
TEXT -22 276 Left 2 !.tran 0 0.02 0 1u
